220

W -2.749712 7.923138 17.660556
W 8.430007 17.930638 12.093059
W 11.065242 12.091862 2.175188
W -0.114477 2.084362 7.742684
W 0.124991 10.283907 17.366392
W 5.555304 0.276407 12.387224
W 8.190539 9.731093 2.469352
W 2.760226 19.738593 7.448520
W -0.747168 10.529091 12.488187
W 6.427463 0.521591 17.265428
W 9.062698 9.485909 7.347556
W 1.888067 19.493409 2.570316
W -3.301073 5.664645 15.255472
W 8.981368 15.672145 14.498143
W 11.616603 14.350355 4.580272
W -0.665838 4.342855 5.337600
W -1.023248 5.491315 12.295979
W 6.703543 15.498815 17.457636
W 9.338778 14.523685 7.539765
W 1.611987 4.516185 2.378107
W 1.627697 5.192491 14.336482
W 4.052599 15.199991 15.417133
W 6.687834 14.822509 5.499262
W 4.262931 4.815009 4.418610
W 2.200667 10.138198 14.733594
W 3.479629 0.130698 15.020022
W 6.114864 9.876802 5.102150
W 4.835902 19.884302 4.815722
W 1.566419 7.627516 12.044264
W 4.113876 17.635016 17.709352
W 6.749111 12.387484 7.791480
W 4.201654 2.379984 2.126392
W 2.246361 7.693566 17.030771
W 3.433934 17.701066 12.722844
W 6.069169 12.321434 2.804973
W 4.881596 2.313934 7.112899
W -2.817980 10.658588 15.124159
W 8.498276 0.651088 14.629456
W 11.133510 9.356412 4.711584
W -0.182745 19.363912 5.206288
W -0.645859 5.326592 17.279908
W 6.326155 15.334092 12.473707
W 8.961390 14.688408 2.555836
W 1.989375 4.680908 7.362036
W -3.352336 8.377078 12.718480
W 9.032632 18.384578 17.035135
W 11.667867 11.637922 7.117263
W -0.717101 1.630422 2.800609
O -3.678810 8.350258 19.004626
O 9.359105 18.357758 10.748989
O 11.994340 11.664742 0.831118
O -1.043575 1.657242 9.086754
O 0.107352 11.426564 18.611878
O 5.572944 1.419064 11.141737
O 8.208179 8.588437 1.223865
O 2.742586 18.595937 8.694006
O -0.462368 11.720784 11.322242
O 6.142663 1.713284 18.431373
O 8.777898 8.294216 8.513501
O 2.172867 18.301716 1.404371
O 8.948753 4.599447 15.049379
O -3.268457 14.606947 14.704237
O -0.633222 15.415553 4.786365
O 11.583987 5.408053 5.131507
O -1.626500 4.431321 11.147688
O 7.306796 14.438821 18.605927
O 9.942030 15.583679 8.688056
O 1.008735 5.576179 1.229816
O 2.709992 3.876906 14.482076
O 2.970303 13.884406 15.271539
O 5.605538 16.138095 5.353667
O 5.345227 6.130595 4.564205
O 3.443449 11.162366 14.196442
O 2.236846 1.154866 15.557174
O 4.872081 8.852635 5.639302
O 6.078684 18.860135 4.278570
O 2.593277 7.925940 10.748989
O 3.087018 17.933440 19.004626
O 5.722253 12.089060 9.086754
O 5.228512 2.081560 0.831118
O 3.500210 7.121337 18.006888
O 2.180085 17.128837 11.746727
O 4.815320 12.893663 1.828856
O 6.135445 2.886163 8.089016
O -3.824103 11.900919 15.660320
O 9.504398 1.893419 14.093296
O 12.139633 8.114081 4.175424
O -1.188868 18.121581 5.742448
O -0.252091 4.073053 18.354014
O 5.932387 14.080553 11.399602
O 8.567622 15.941948 1.481730
O 2.383144 5.934448 8.436142
O 8.887997 8.220161 11.709039
O -3.207702 18.227661 18.044576
O -0.572467 11.794840 8.126704
O 11.523232 1.787340 1.791168
O -2.272818 4.599447 16.453749
O 7.953113 14.606947 13.299866
O 10.588348 15.415553 3.381994
O 0.362417 5.408053 6.535878
O 2.270183 8.768572 13.442683
O 3.410113 18.776072 16.310932
O 6.045348 11.246429 6.393060
O 4.905418 1.238929 3.524812
O -3.907284 6.689013 16.806826
O 9.587580 16.696513 12.946790
O 12.222815 13.325987 3.028918
O -1.272050 3.318487 6.888954
O 0.365614 4.441329 13.038034
O 5.314682 14.448829 16.715581
O 7.949917 15.573672 6.797709
O 3.000849 5.566172 3.120162
O 1.554133 9.118834 18.070362
O 4.126162 19.126334 11.683253
O 6.761397 10.896166 1.765381
O 4.189368 0.888666 8.152491
O -1.918323 11.516631 13.646992
O 7.598618 1.509131 16.106624
O 10.233853 8.498369 6.188752
O 0.716912 18.505869 3.729120
O 1.521694 11.090312 16.249441
O 4.158601 1.082812 13.504174
O 6.793836 8.924689 3.586302
O 4.156929 18.932189 6.331569
O 0.782285 6.572926 17.590337
O 4.898010 16.580426 12.163278
O 7.533245 13.442074 2.245406
O 3.417520 3.434574 7.672466
O 3.163973 8.992740 15.953889
O 2.516323 19.000240 13.799727
O 5.151558 11.022261 3.881855
O 5.799207 1.014761 6.036017
O -2.175318 7.063294 12.042280
O 7.855613 17.070794 17.711335
O 10.490848 12.951707 7.793464
O 0.459917 2.944207 2.124408
O -1.143531 8.984734 17.935479
O 6.823827 18.992234 11.818136
O 9.459061 11.030267 1.900264
O 1.491704 1.022767 8.017608
O 0.239746 9.052785 11.814169
O 5.440549 19.060285 17.939447
O 8.075784 10.962216 8.021575
O 2.874981 0.954716 1.896297
O 0.336199 4.823615 15.725778
O 5.344096 14.831115 14.027838
O 7.979331 15.191385 4.109966
O 2.971434 5.183885 5.807906
O -3.730614 7.157364 14.117099
O 9.410910 17.164864 15.636517
O 12.046145 12.857636 5.718645
O -1.095379 2.850136 4.199227
O 9.613391 9.833370 13.867168
O -3.933096 19.840870 15.886447
O -1.297861 10.181631 5.968575
O 12.248626 0.174131 3.949297
O 0.319062 6.438826 11.219097
O 5.361234 16.446326 18.534519
O 7.996469 13.576175 8.616647
O 2.954297 3.568675 1.301225
O 2.328153 6.478856 15.525437
O 3.352142 16.486356 14.228179
O 5.987377 13.536145 4.310307
O 4.963388 3.528645 5.607565
O -3.193773 9.264944 16.376390
O 8.874068 19.272444 13.377225
O 11.509303 10.750057 3.459354
O -0.558538 0.742557 6.458518
O 2.432513 6.110580 12.831743
O 3.247782 16.118080 16.921873
O 5.883017 13.904421 7.004001
O 5.067748 3.896921 2.913871
O -1.749081 6.400797 18.409554
O 7.429377 16.408297 11.344062
O 10.064611 13.614203 1.426190
O 0.886154 3.606703 8.491682
O 0.692262 10.738048 13.700548
O 4.988033 0.730548 16.053067
O 7.623268 9.276953 6.135195
O 3.327497 19.284453 3.782676
O -2.365041 9.743302 11.738793
O 8.045336 19.750802 18.014822
O 10.680571 10.271698 8.096951
O 0.270194 0.264198 1.820921
O -1.214796 10.878153 16.183983
O 6.895091 0.870653 13.569632
O 9.530326 9.136848 3.651760
O 1.420439 19.144348 6.266111
O -2.129316 5.155864 13.827497
O 7.809612 15.163364 15.926119
O 10.444847 14.859136 6.008247
O 0.505919 4.851636 3.909625
O 0.650727 8.762567 15.743630
O 5.029568 18.770067 14.009986
O 7.664803 11.252433 4.092114
O 3.285962 1.244933 5.825758
O 0.196373 6.865145 13.700548
O 5.483922 16.872645 16.053067
O 8.119157 13.149855 6.135195
O 2.831608 3.142355 3.782676
O -1.551119 6.963219 15.961823
O 7.231414 16.970719 13.791793
O 9.866649 13.051782 3.873921
O 1.084116 3.044282 6.043951
O -1.580466 9.044779 14.021887
O 7.260761 19.052279 15.731728
O 9.895996 10.970222 5.813856
O 1.054769 0.962722 4.104015
O 12.496308 8.460341 0.547467
O -1.545543 18.467841 9.370405
O -4.180778 11.554660 19.288277
O 9.861073 1.547160 10.465338
O 0.806876 10.077553 1.759430
O 10.143889 0.070053 8.158441
O 7.508654 9.937448 18.076313
O -1.828359 19.944948 11.677302
O 5.592373 5.704275 11.881610
O 0.087923 15.711775 17.872005
O 2.723158 14.310725 7.954133
O 8.227607 4.303225 1.963739