208

W 4.599184 3.209671 11.226656
W 10.590079 13.066171 11.174089
W 11.596991 16.503329 3.707174
W 5.606096 6.646829 3.759741
W 2.340714 2.650019 13.602479
W 12.848548 12.506519 8.798266
W 13.855461 17.062981 1.331351
W 3.347627 7.206481 6.135564
W 5.341454 1.170164 13.753012
W 9.847809 11.026664 8.647733
W 10.854721 18.542836 1.180818
W 6.348366 8.686336 6.286097
W 5.480046 0.434672 8.880701
W 9.709217 10.291172 13.520044
W 10.716129 19.278328 6.053129
W 6.486958 9.421828 1.413786
W 6.181768 18.159418 11.406608
W 9.007495 8.302918 10.994136
W 10.014407 1.553582 3.527221
W 7.188680 11.410082 3.939694
W 3.998370 17.197030 9.152944
W 11.190892 7.340530 13.247800
W 12.197805 2.515970 5.780885
W 5.005283 12.372470 1.686029
W 3.656157 17.599569 14.067369
W 11.533106 7.743069 8.333376
W 12.540018 2.113431 0.866461
W 4.663069 11.969931 6.600454
W 1.454417 16.585730 11.797128
W 13.734845 6.729230 10.603616
W 14.741758 3.127270 3.136702
W 2.461330 12.983770 4.330213
W 0.656073 19.059908 13.867405
W 14.533189 9.203408 8.533340
W 15.540102 0.653092 1.066425
W 1.662986 10.509592 6.400490
W -0.068689 1.594782 11.000558
W 15.257951 11.451282 11.400187
W 16.264864 18.118218 3.933272
W 0.938224 8.261718 3.533643
W 2.187024 2.080510 8.680289
W 13.002238 11.937010 13.720456
W 14.009151 17.632490 6.253541
W 3.193937 7.775990 1.213374
W 0.718440 18.843460 8.954026
W 14.470822 8.986960 13.446719
W 15.477735 0.869540 5.979804
W 1.725353 10.726040 1.487111
O 5.345221 4.656211 10.771771
O 9.844041 14.512711 11.628973
O 10.850954 15.056789 4.162058
O 6.352134 5.200289 3.304857
O 1.600689 3.755327 14.665021
O 13.588574 13.611827 7.735724
O 14.595486 15.957674 0.268809
O 2.607601 6.101174 7.198106
O 6.546285 1.360197 14.923376
O 8.642978 11.216697 7.477369
O 9.649890 18.352803 0.010454
O 7.553197 8.496303 7.456461
O 6.471609 0.975794 7.590866
O 8.717654 10.832294 14.809879
O 9.724566 18.737207 7.342964
O 7.478521 8.880707 0.123951
O 7.645207 17.422349 11.824606
O 7.544055 7.565849 10.576138
O 8.550968 2.290651 3.109223
O 8.652120 12.147151 4.357692
O 4.102175 15.884735 8.052321
O 11.087088 6.028235 14.348424
O 12.094000 3.828265 6.881509
O 5.109087 13.684765 0.585406
O 6.365457 16.689026 0.397240
O 10.837630 6.832526 7.069675
O 9.830718 3.023974 14.536590
O 5.358545 12.880474 7.864155
O 0.701782 15.064675 11.581185
O 14.487481 5.208175 10.819560
O 15.494393 4.648325 3.352645
O 1.708694 14.504825 4.114270
O 1.483815 19.129495 0.164272
O 15.719273 9.272995 7.302643
O 14.712360 0.583505 14.769558
O 0.476902 10.440005 7.631187
O 16.664218 2.339933 11.192905
O -1.474956 12.196433 11.207839
O -0.468043 17.373067 3.740924
O 17.671131 7.516567 3.725991
O 2.107507 3.136338 7.314590
O 15.095580 12.992838 0.152325
O 14.088667 16.576662 7.619240
O 1.100595 6.720162 14.781505
O -0.349695 18.074850 7.846234
O 15.538957 8.218350 14.554510
O 16.545870 1.638150 7.087596
O 0.657218 11.494650 0.379319
O 5.582757 16.787591 10.131110
O 9.606505 6.931091 12.269634
O 10.613418 2.925409 4.802720
O 6.589670 12.781909 2.664195
O 2.696602 16.162689 13.195532
O 12.492660 6.306189 9.205213
O 13.499573 3.550311 1.738298
O 3.703515 13.406811 5.728617
O 3.184372 3.098884 9.929503
O 12.004891 12.955384 12.471241
O 13.011803 16.614116 5.004326
O 4.191284 6.757616 2.462589
O 6.820707 19.226089 9.930997
O 8.368555 9.369589 12.469748
O 9.375468 0.486911 5.002833
O 7.827620 10.343411 2.464082
O 3.954972 2.257139 14.558991
O 11.234290 12.113639 7.841754
O 12.241203 17.455862 0.374839
O 4.961884 7.599362 7.092076
O -0.143647 0.242470 12.408519
O 15.332910 10.098970 9.992225
O 16.339822 19.470530 2.525311
O 0.863265 9.614030 4.941604
O 1.014389 2.608030 12.220353
O 14.174873 12.464530 10.180392
O 15.181786 17.104970 2.713477
O 2.021301 7.248470 4.753438
O 2.358569 18.070907 8.531697
O 12.830694 8.214407 13.869048
O 13.837606 1.642093 6.402133
O 3.365481 11.498593 1.064782
O 0.593624 17.601738 10.452187
O 14.595639 7.745238 11.948557
O 15.602551 2.111262 4.481642
O 1.600536 11.967762 2.985273
O 5.003150 18.423770 8.028427
O 10.186113 8.567270 14.372318
O 11.193025 1.289230 6.905403
O 6.010062 11.145730 0.561512
O 4.392882 19.348310 14.336477
O 10.796380 9.491810 8.064268
O 11.803293 0.364691 0.597353
O 5.399794 10.221191 6.869562
O 3.796803 1.094072 8.291262
O 11.392459 10.950572 14.109482
O 12.399372 18.618929 6.642567
O 4.803716 8.762429 0.824347
O 3.340187 3.911059 12.501109
O 11.849075 13.767559 9.899636
O 12.855988 15.801941 2.432721
O 4.347100 5.945441 5.034194
O 0.515973 2.661255 9.569598
O 14.673290 12.517755 12.831146
O 15.680202 17.051745 5.364232
O 1.522885 7.195245 2.102683
O 0.275803 17.345469 13.065608
O 14.913459 7.488969 9.335137
O 15.920371 2.367531 1.868222
O 1.282716 12.224031 5.598693
O -0.741773 0.193187 9.821980
O 15.931035 10.049687 12.578765
O 16.937948 19.519813 5.111850
O 0.265140 9.663313 2.355065
O 1.597754 1.021133 14.187138
O 13.591508 10.877633 8.213606
O 14.598421 18.691867 0.746691
O 2.604667 8.835367 6.720223
O 2.922541 16.456412 10.547764
O 12.266721 6.599912 11.852981
O 13.273634 3.256588 4.386066
O 3.929454 13.113088 3.080849
O 6.150594 0.043369 12.496629
O 9.038668 9.899869 9.904116
O 10.045581 19.669631 2.437201
O 7.157507 9.813131 5.029714
O 5.780211 2.720394 12.637007
O 9.409051 12.576894 9.763738
O 10.415964 16.992606 2.296823
O 6.787124 7.136106 5.170092
O 5.488425 1.969329 10.060921
O 9.700837 11.825829 12.339823
O 10.707750 17.743671 4.872909
O 6.495338 7.887171 2.594006
O 2.007127 18.163558 14.905455
O 13.182135 8.307058 7.495289
O 14.189048 1.549442 0.028374
O 3.014040 11.405942 7.438541
O 5.026587 17.402636 12.743037
O 10.162675 7.546136 9.657708
O 11.169588 2.310364 2.190793
O 6.033500 12.166864 5.276122
O 1.217381 0.534222 7.852208
O 13.971882 10.390722 14.548537
O 14.978794 19.178778 7.081622
O 2.224293 9.322278 0.385293
O 3.622657 1.395680 12.202432
O 11.566606 11.252180 10.198312
O 12.573518 18.317320 2.731397
O 4.629569 8.460820 4.735517
O 2.386544 18.544019 12.429426
O 12.802718 8.687519 9.971318
O 13.809631 1.168981 2.504403
O 3.393457 11.025481 4.962512
O 4.339806 18.989533 10.422320
O 10.849456 9.133033 11.978425
O 11.856368 0.723467 4.511510
O 5.346719 10.579967 2.955405
O 1.696812 0.555907 10.238634
O 13.492451 10.412407 12.162111
O 14.499363 19.157093 4.695196
O 2.703724 9.300593 2.771719